********************************************************************************
*  **********************************************
*  *             TSMC SPICE MODEL               *
*  **********************************************
*
*    PROCESS :  0.18um LOGIC SALICIDE (1P6M, 1.8V/3.3V)                 
*    MODEL   :  BSIM3 ( V3.24 )                                          
*    DOC. NO.:  T-018-LO-SP-001                                                        
*    VERSION :  2.1
*    DATE    :  Sep. 12, 2004
*    HSPICE VERSION : H98.2 & H98.4 (or above)
*
********************************************************************************                 
******************************************************************************                   
*                                                                            *                   
*       IN THIS MODEL LIB CONTAINS :                                         *                 
*                                                                            *                 
*       1.LIB TT                                                             *                 
*             SS                                                             *                 
*             FF                                                             *                 
*             SF                                                             *                 
*             FS                                                             *       
*        ( 1.8V Normal devices with different geometric and corner models)   *       
*                                                                            *       
*       2.LIB TT_3V                                                          *       
*             SS_3V                                                          *       
*             FF_3V                                                          *       
*             SF_3V                                                          *       
*             FS_3V                                                          *       
*        ( 3.3V normal devices  with different geometric and corner models)  *                            *
*                                                                            *       
*                                                                            *       
*       3.LIB TT_NA                                                          *       
*             SS_NA                                                          *       
*             FF_NA                                                          *       
*             SF_NA                                                          *       
*             FS_NA                                                          *                                                       
*        ( 1.8V native NMOS with different geometric and corner models)      *                                                       
*                                                                            *                                                                                                                                                                   
*       4.LIB TT_3VNA                                                        *                                                                                                                                                                   
*             SS_3VNA                                                        *                                                                                                                                                                   
*             FF_3VNA                                                        *                                                                                                                                                                   
*             SF_3VNA                                                        *                                                                                                                                                                   
*             FS_3VNA                                                        *                                                                                                                                                                   
*        ( 3.3V native NMOS with different geometric and corner models)      *                                                                                                                                                                   
*                                                                            *                                                                                                                                                                   
*       5.LIB BIP                                                            *                                                                                                                                                                   
*        ( 1.8V P+/NW/PSUB 10x10, 5x5 and 2x2 vertical PNP bipolar )         *                                                                                                                                
*                                                                            *                                                                                                                                
*       6.LIB BIP3                                                           *
*        ( 3.3V P+/NW/PSUB 10x10, 5x5 and 2x2 vertical PNP bipolar )         *
*                                                                            *
*       7.LIB DIO                                                            *
*        ( 1.8V P+/NW , N+/PW & NW/PSUB diode )                              *                                                                                                            
*                                                                            *                                                                                                            
*       8.LIB DIO3                                                           *                                                                                                            
*        ( 3.3V P+/NW , N+/PW & NW/PSUB diode )                              *                                                                                                            
*                                                                            *                                                                                                            
*       9.LIB RES                                                            *                                                                                                            
*         (resist model)                                                     *                                                                                                                                                                                                                                                                                                         
*                                                                            *                                                                                                                                                                                                                                                                                                         
******************************************************************************                                                                                                                                                                                                                                                                                                         
******************************************************************************                                                                                                                                                                                                                                                                                                         
*                                                                            *                                                                                                                                                                                                                                                                                                         
* 1)To use these models directly by programming in this style:               *                                                                                                                                                                                             
*                                                                            *                                                                                                                                                                                             
*     .lib 'lib_path/lib_name' model_name                                    *                                                                                                                                                                                             
*                                                                            *                                                                                                                                                                                             
*                                                                            *                                                                                                                                                                                             
*    EX: .lib '/home/user/tsmc/LOGIC/log018.l' TT                            *                                                                                                                                                                                             
*        for typical 1.8V N,PMOS                                             *
*        .lib '/home/user/tsmc/LOGIC/log018.l' TT_3V                         *
*        for typical 3.3V N,PMOS                                             *
*  note:                                                                     *
*      corner_name                                                           *                                                                                                            
*       TT : typical model for 1.8V devices                                  *                                                                                                                                                                                             
*       SS : Slow NMOS Slow PMOS model for 1.8V devices                      *                                                                                                                                                                                             
*       FF : Fast NMOS Fast PMOS model for 1.8V devices                      *                                                                                                                                                                                                                                                                              
*       SF : Slow NMOS Fast PMOS model for 1.8V devices                      *                                                                                                                                                                                                                                                                                                         
*       FS : Fast NMOS Slow PMOS model for 1.8V devices                      *                                                                                                                                                                                                                                                                                                         
*                                                                            *                                                                                                                                                                                                                                                                                                         
*       TT_3V : typical model for 3.3V devices                               *                                                                                                                                                                                                                                                                                                                                                               
*       SS_3V : Slow NMOS Slow PMOS model for 3.3V devices                   *                                                                                                                                                                                                                                                                                                                                                                                          
*       FF_3V : Fast NMOS Fast PMOS model for 3.3V devices                   *                                                                                                                                                                                                                                                                                                                                                                                          
*       SF_3V : Slow NMOS Fast PMOS model for 3.3V devices                   *                                                                                                                                                                                                                                                                                                                                                                                                                                                
*       FS_3V : Fast NMOS Slow PMOS model for 3.3V devices                   *                                                                                                                                                                                                                                                                                                                                    
*                                                                            *                                                                                                                                                                                                                                                     
*       TT_NA : typical model for 1.8V native NMOS                           *                                                                                                                                                                                                                                                                                                                                                                 
*       SS_NA : Slow NMOS for 1.8V native NMOS                               *                                                                                                                                                                                                                                                                                                                                                                                              
*       FF_NA : Fast NMOS for 1.8V native NMOS                               *                                                                                                                                                                                                                                                                                                                                                                   
*       SF_NA : Slow NMOS for 1.8V native NMOS                               *                                                                                                                                                                                                                                                                                                                                                                   
*       FS_NA : Fast NMOS for 1.8V native NMOS                               *                                                                                                                                                                                                                                                                                                                                                                   
*                                                                            *                                                                                                                                                                                                                                                                                                                                                                  
*       TT_3VNA : typical model for 3.3V native NMOS                         *                                                                                                                                                                                                                                                                                                                                       
*       SS_3VNA : Slow NMOS for 3.3V native NMOS                             *                                                                                                                                                                                                                                                                                                                                       
*       FF_3VNA : Fast NMOS for 3.3V native NMOS                             *                                                                                                                                                                                                                                                                                                                                                                                             
*       SF_3VNA : Slow NMOS for 3.3V native NMOS                             *                                                                                                                                                                                                                                                                                                                                                                                                                                                                                                                                                                                          
*       FS_3VNA : Fast NMOS for 3.3V native NMOS                             *                                                                                                                                                                                                                                                                                                                                                                                                                                                                                                                                                                                          
*                                                                            *                                                                                                                                                                                                                                                                                                                                                                                                                                                                              
* 2)HDIF depends on your layout poly spacer to contact center distance.      *                                                                                                                                                                                                                                                                                                                                                                                                                                                                                                          
*   The value listed here is TSMC minimum-rule value. You can change it      *                                                                                                                                                                                                                                                                                                                                                                                                                                                                                                          
*   according to your layout.                                                *                                                                                                                                                                                                                                                                                                                                                                                                                                                                                                          
*                                                                            *                                                                                                                                                                                                                                                                                                                                                                                                                                                                                                          
******************************************************************************                                                                                                                                                                                                                                                                                                                                                                                                                                                  
***************************************************************                                                                                                                                                                                                                                                                                                                                                                                                                                                                  
*                                                             *                                                                                                                                                                                                                                                                                                                                                                                                                                                                  
*                1.8V NORMAL DEVICES LIB                      *                                                                                                                                                                                                                                                                                                                                                     
*                                                             *                                                                                                                                                         
*************************************************************** 
******************************    LIBRARY OF TYPICAL CASE    ******************************
.LIB TT
.param
+toxn             = 4.08E-09     cjn              = 0.001000266  cjswn            = 2.040547E-10
+cjswgn           = 3.340547E-10 cgon             = 3.665E-10    dvthn            = 0           
+hdifn            = 2E-07        dvsatn		  = 0            dwvthn		  = 0
+rshn             = 6.8  	 				 dpvthn		  = 0
+toxp             = 4.08E-09     cjp              = 0.001121     cjswp            = 2.481E-10   
+cjswgp           = 4.221E-10    cgop             = 3.28E-10     dvthp            = 0           
+hdifp            = 2E-07        dxl              = 0            dxw              = 0           
+rshp             = 7.2      
.lib 'log018.l' MOS
.ENDL TT

******************************  LIBRARY OF SNSP CORNER CASE  ******************************
.LIB SS
.param
+toxn             = 4.213E-09    cjn              = 0.001050279  cjswn            = 2.142574E-10
+cjswgn           = 3.507574E-10 cgon             = 3.48175E-10  dvthn            = 0.067         
+hdifn            = 2E-07        dvsatn		  = -3500        dwvthn		  = 7.5E-10
+rshn             = 6.8 					 dpvthn		  = 7.5E-16
+toxp             = 4.213E-09    cjp              = 0.00117705   cjswp            = 2.60505E-10 
+cjswgp           = 4.43205E-10  cgop             = 3.116E-10    dvthp            = -0.067      
+hdifp            = 2E-07        dxl              = 1.33E-08     dxw              = -2.2E-08    
+rshp             = 7.2         
.lib 'log018.l' MOS
.ENDL SS

******************************  LIBRARY OF FNFP CORNER CASE  ******************************
.LIB FF
.param
+toxn             = 3.947E-09    cjn              = 0.0009502527 cjswn            = 1.93852E-10 
+cjswgn           = 3.17352E-10  cgon             = 3.84825E-10  dvthn            = -0.067        
+hdifn            = 2E-07        dvsatn		  = 3500         dwvthn		  = -7.5E-10
+rshn             = 6.8                                          dpvthn		  = -7.5E-16
+toxp             = 3.947E-09    cjp              = 0.00106495   cjswp            = 2.35695E-10 
+cjswgp           = 4.00995E-10  cgop             = 3.444E-10    dvthp            = 0.067       
+hdifp            = 2E-07        dxl              = -1.33E-08    dxw              = 2.2E-08     
+rshp             = 7.2         
.lib 'log018.l' MOS
.ENDL FF

******************************  LIBRARY OF SNFP CORNER CASE  ******************************
.LIB SF
.param
+toxn             = 4.08E-09     cjn              = 0.001050279  cjswn            = 2.142574E-10
+cjswgn           = 3.507574E-10 cgon             = 3.665E-10    dvthn            = 0.067         
+hdifn            = 2E-07        dvsatn		  = 0            dwvthn		  = 7.5E-10
+rshn             = 6.8                                          dpvthn		  = 7.5E-16
+toxp             = 4.08E-09     cjp              = 0.00106495   cjswp            = 2.35695E-10 
+cjswgp           = 4.00995E-10  cgop             = 3.28E-10     dvthp            = 0.067       
+hdifp            = 2E-07        dxl              = 0.0          dxw              = 0.0         
+rshp             = 7.2         
.lib 'log018.l' MOS
.ENDL SF

******************************  LIBRARY OF FNSP CORNER CASE  ******************************
.LIB FS
.param
+toxn             = 4.08E-09     cjn              = 0.0009502527 cjswn            = 1.93852E-10 
+cjswgn           = 3.17352E-10  cgon             = 3.665E-10    dvthn            = -0.067        
+hdifn            = 2E-07        dvsatn		  = 0            dwvthn		  = -7.5E-10
+rshn             = 6.8                                          dpvthn		  = -7.5E-16
+toxp             = 4.08E-09     cjp              = 0.00117705   cjswp            = 2.60505E-10 
+cjswgp           = 4.43205E-10  cgop             = 3.28E-10     dvthp            = -0.067      
+hdifp            = 2E-07        dxl              = 0.0          dxw              = 0.0         
+rshp             = 7.2        
.lib 'log018.l' MOS
.ENDL FS

*******************************************************************************************
***************************************************************
*                                                             *
*                3.3V NORMAL DEVICES LIB                      *
*                                                             *
***************************************************************
******************************    LIBRARY OF TYPICAL CASE    ******************************
.LIB TT_3V
.param
+toxn3          = 6.8E-009     cjn3           = 0.0008964788 cjswn3         = 2.50664E-10 
+cjswgn3        = 3.00664E-10  cgon3          = 3.18E-10     dvthn3         = 0           
+hdifn3         = 2E-07                  
+rshn3          = 6.8 
+toxp3          = 6.77E-09     cjp3           = 0.00103531   cjswp3         = 2.23115E-10 
+cjswgp3        = 2.345762E-10 cgop3          = 2.77E-10     dvthp3         = 0           
+hdifp3         = 2E-07        dxl3           = 0            dxw3           = 0           
+rshp3          = 7.2        
.lib 'log018.l' MOS_3V
.ENDL TT_3V

******************************  LIBRARY OF SNSP CORNER CASE  ******************************
.LIB SS_3V
.param
+toxn3          = 7.5E-009     cjn3           = 0.0009413027 cjswn3         = 2.631972E-10
+cjswgn3        = 3.156972E-10 cgon3          = 3.021E-10    dvthn3         = 0.1         
+hdifn3         = 2E-07           
+rshn3          = 6.8
+toxp3          = 7.47E-09     cjp3           = 0.001087076  cjswp3         = 2.342708E-10
+cjswgp3        = 2.46305E-10  cgop3          = 2.6315E-10   dvthp3         = -0.1        
+hdifp3         = 2E-07        dxl3           = 1.33E-08     dxw3           = -2.2E-08    
+rshp3          = 7.2         
.lib 'log018.l' MOS_3V
.ENDL SS_3V

******************************  LIBRARY OF FNFP CORNER CASE  ******************************
.LIB FF_3V
.param
+toxn3          = 6.1E-09      cjn3           = 0.0008516549 cjswn3         = 2.381308E-10
+cjswgn3        = 2.856308E-10 cgon3          = 3.339E-10   dvthn3         = -0.1        
+hdifn3         = 2E-07           
+rshn3          = 6.8
+toxp3          = 6.07E-09     cjp3           = 0.0009835445 cjswp3         = 2.119593E-10
+cjswgp3        = 2.228474E-10 cgop3          = 2.9085E-10  dvthp3         = 0.1         
+hdifp3         = 2E-07        dxl3           = -1.33E-08   dxw3           = 2.2E-08     
+rshp3          = 7.2         
.lib 'log018.l' MOS_3V
.ENDL FF_3V

******************************  LIBRARY OF SNFP CORNER CASE  ******************************
.LIB SF_3V
.param
+toxn3          = 6.8E-09      cjn3           = 0.0009413027 cjswn3         = 2.631972E-10
+cjswgn3        = 3.156972E-10 cgon3          = 3.18E-10     dvthn3         = 0.1         
+hdifn3         = 2E-07                 
+rshn3          = 6.8  
+toxp3          = 6.77E-09     cjp3           = 0.0009835445 cjswp3         = 2.119593E-10
+cjswgp3        = 2.228474E-10 cgop3          = 2.77E-10     dvthp3         = 0.1         
+hdifp3         = 2E-07        dxl3           = 0.0          dxw3           = 0.0         
+rshp3          = 7.2       
.lib 'log018.l' MOS_3V
.ENDL SF_3V

******************************  LIBRARY OF FNSP CORNER CASE  ******************************
.LIB FS_3V
.param
+toxn3          = 6.8E-09      cjn3           = 0.0008516549 cjswn3         = 2.381308E-10
+cjswgn3        = 2.856308E-10 cgon3          = 3.18E-10     dvthn3         = -0.1        
+hdifn3         = 2E-07                 
+rshn3          = 6.8
+toxp3          = 6.77E-09     cjp3           = 0.001087076  cjswp3         = 2.342708E-10
+cjswgp3        = 2.46305E-10  cgop3          = 2.77E-10     dvthp3         = -0.1        
+hdifp3         = 2E-07        dxl3           = 0.0          dxw3           = 0.0         
+rshp3          = 7.2         
.lib 'log018.l' MOS_3V
.ENDL FS_3V

*******************************************************************************************
***************************************************************
*                                                             *
*               1.8V NATIVE NMOS LIB                          *
*                                                             *
***************************************************************
***************** CORNER_LIB OF TYPICAL MODEL ***************
.LIB TT_NA
.param
+toxna   = 4.08E-09        cjna    = 0.0001337865    cjswna  = 1.553397E-10
+cjswgna = 3.173876E-10    cgona   = 5.553E-10
+dvthna  = 0               hdifna  = 2E-07
+dxlna   = 0               dxwna   = 0
.lib 'log018.l' MOSNA
.ENDL TT_NA
***************** CORNER_LIB OF SNSP MODEL ***************
.LIB SS_NA
.param
+toxna   = 4.213E-09       cjna    = 0.0001404758    cjswna  = 1.631067E-10
+cjswgna = 3.33257E-10     cgona   = 5.27535E-10
+dvthna  = 0.08            hdifna  = 2E-07
+dxlna   = 1.33E-08        dxwna   = -2.2E-08
.lib 'log018.l' MOSNA
.ENDL SS_NA
***************** CORNER_LIB OF FNFP MODEL ***************
.LIB FF_NA
.param
+toxna   = 3.947E-09       cjna    = 0.0001270972    cjswna  = 1.475727E-10
+cjswgna = 3.015182E-10    cgona   = 5.83065E-10
+dvthna  = -0.08           hdifna  = 2E-07
+dxlna   = -1.33E-08       dxwna   = 2.2E-08
.lib 'log018.l' MOSNA
.ENDL FF_NA
***************** CORNER_LIB OF SNFP MODEL ***************
.LIB SF_NA
.param
+toxna   = 4.08E-09        cjna    = 0.0001404758    cjswna  = 1.631067E-10
+cjswgna = 3.33257E-10     cgona   = 5.553E-10
+dvthna  = 0.08            hdifna  = 2E-07
+dxlna   = 0               dxwna   = 0
.lib 'log018.l' MOSNA
.ENDL SF_NA
***************** CORNER_LIB OF FNSP MODEL ***************
.LIB FS_NA
.param
+toxna   = 4.08E-09        cjna    = 0.0001270972    cjswna  = 1.475727E-10
+cjswgna = 3.015182E-10    cgona   = 5.553E-10
+dvthna  = -0.08           hdifna  = 2E-07
+dxlna   = 0               dxwna   = 0
.lib 'log018.l' MOSNA
.ENDL FS_NA
***************************************************************
*                                                             *
*               3.3V NATIVE NMOS LIB                          *
*                                                             *
***************************************************************
***************** CORNER_LIB OF TYPICAL MODEL ***************
.LIB TT_3VNA
.param
+toxna3 = 6.8E-09         cjna3  = 0.0001247448    cjswna3= 1.458794E-10
+cjswgna3 = 3.180842E-10    cgona3   = 4.942E-10
+dvthna3  = 0               hdifna3  = 2E-08
+dxlna3    = 0              dxwna3    = 0
.lib 'log018.l' MOSNA3
.ENDL TT_3VNA
***************** CORNER_LIB OF SNSP MODEL ***************
.LIB SS_3VNA
.param
+toxna3 = 7.5E-09         cjna3  = 0.000130982     cjswna3= 1.531734E-10
+cjswgna3 = 3.339884E-10    cgona3   = 4.6949E-10
+dvthna3  = 0.1             hdifna3  = 2E-08
+dxlna3    = 1.33E-08       dxwna3    = -2.2E-08
.lib 'log018.l' MOSNA3
.ENDL SS_3VNA
***************** CORNER_LIB OF FNFP MODEL ***************
.LIB FF_3VNA
.param
+toxna3 = 6.1E-09         cjna3  = 0.0001185076    cjswna3= 1.385854E-10
+cjswgna3 = 3.0218E-10      cgona3   = 5.1891E-10
+dvthna3  = -0.1            hdifna3  = 2E-08
+dxlna3    = -1.33E-08      dxwna3    = 2.2E-08
.lib 'log018.l' MOSNA3
.ENDL FF_3VNA
***************** CORNER_LIB OF SNFP MODEL ***************
.LIB SF_3VNA
.param
+toxna3 = 6.8E-09         cjna3  = 0.000130982     cjswna3= 1.531734E-10
+cjswgna3 = 3.339884E-10    cgona3   = 4.942E-10
+dvthna3  = 0.1             hdifna3  = 2E-08
+dxlna3    = 0              dxwna3    = 0
.lib 'log018.l' MOSNA3
.ENDL SF_3VNA
***************** CORNER_LIB OF FNSP MODEL ***************
.LIB FS_3VNA
.param
+toxna3 = 6.8E-09         cjna3  = 0.0001185076    cjswna3= 1.385854E-10
+cjswgna3 = 3.0218E-10      cgona3   = 4.942E-10
+dvthna3  = -0.1            hdifna3  = 2E-08
+dxlna3    = 0              dxwna3    = 0
.lib 'log018.l' MOSNA3
.ENDL FS_3VNA

.LIB MOS
***************************************************************
*                                                             *
*               1.8V  NMOS DEVICES MODEL                      *
*                                                             *
***************************************************************
*******************************************************************************************
*                                                                                         *
*                              1.8V CORE DEVICE MODELS                                    *
*                                                                                         *
*******************************************************************************************

.MODEL nch.1 NMOS	(	LMIN     = '1.000E-05-dxl'         LMAX     = 20.001e-006              
+WMIN     = '1.0000E-05-dxw'                                   WMAX     = 900.001e-6               
+LEVEL    = 49                  TNOM     = 25.0                VERSION  = 3.24                 
+TOX      = 'toxn'              TOXM     = 'toxn'              XJ       = 1.6000000E-07       
+NCH      = 3.9000000E17        LLN      = -1                  LWN      = 1.0000000           
+WLN      = 1.0000000           WWN      = 1                   LINT     = 1.0000000E-08       
+LL       = 0.00                LW       = 0.00                LWL      = 0.00                
+WINT     = 3.0000000E-09       WL       = 0.00                WW       = 0.00                
+WWL      = 0.00                MOBMOD   = 1                   BINUNIT  = 2                   
+XL       = '-0.02E-6+dxl'      XW       = '0.0+dxw'           DWG      = 0.00                
+DWB      = 0.00                ACM      = 12                  LDIF     = 9.00E-08            
+HDIF     = 'hdifn'             RSH      = 'rshn'              RD       = 0                   
+RS       = 0                                      
+VTH0     = '0.4365561+dvthn'   WVTH0     = '0+dwvthn'	       PVTH0    = '0+dpvthn'
+K1       = 0.5142301           K2       = 1.4797844E-02       
+K3       = 0.00                DVT0     = 0.00                DVT1     = 0.00                
+DVT2     = 0.00                DVT0W    = 0.00                DVT1W    = 0.00                
+DVT2W    = 0.00                NLX      = 0.00                W0       = 0.00                
+K3B      = 0.00                VSAT     = '9.0000010E04+dvsatn'        
+UA       = -6.1227400E-10      UB       = 2.3135539E-18       UC       = 1.0876087E-10       
+RDSW     = 1.7000000E02        PRWB     = 0.00                PRWG     = 0.00                
+WR       = 1.0000000           U0       = 4.2203390E-02       A0       = 0.3700794           
+KETA     = 9.2634850E-03       A1       = 0.00                A2       = 0.9900000           
+AGS      = 2.0000000E-02       B0       = 0.00                B1       = 0.00                
+VOFF     = -0.1405780          NFACTOR  = 1.0000000           CIT      = -1.0000001E-04      
+CDSC     = 0.00                CDSCB    = 0.00                CDSCD    = 0.00                
+ETA0     = 5.0000000E-05       ETAB     = -5.0000000E-05      DSUB     = 0.00                
+PCLM     = 0.8000001           PDIBLC1  = 1.0000000E-06       PDIBLC2  = 6.9999990E-04       
+PDIBLCB  = 1.0000000E-02       DROUT    = 0.00                PSCBE1   = 2.0000003E08        
+PSCBE2   = 1.0000000E-06       PVAG     = 0.00                DELTA    = 1.0000000E-02       
+ALPHA0   = 0.0                 ALPHA1   = 0.448150714         BETA0    = 11.59263            
+KT1      = -0.2240464          KT2      = -3.0266136E-02      AT       = 2.0000000E04        
+UTE      = -1.5799998          UA1      = 1.2240000E-09       UB1      = -1.1209314E-18      
+UC1      = 1.1643822E-11       KT1L     = 0.00                PRT      = 0                   
+CJ       = cjn                 PB       = 0.6882682           MJ       = 0.3595262
+CJSW     = cjswn               PBSW     = 0.6882682           MJSW     = 0.2003879
+CJSWG    = cjswgn              PBSWG    = 0.6882682           MJSWG    = 0.43879
+CGDO     = cgon                CGSO     = cgon                TCJ      = 0.001040287
+TCJSW    = 0.000645489         TCJSWG   = 0.000645489         TPB      = 0.001554306
+TPBSW    = 0.001554306         TPBSWG   = 0.001554306
+JS       = 3.50E-07            JSW      = 1.45E-12             N        = 1
+XTI      = 3                   CAPMOD   = 3                   NQSMOD   = 0
+XPART    = 1                   CF       = 0                   TLEV     = 1
+TLEVC    = 1                   CALCACM  = 1                   SFVTFLAG = 0
+DLC      = 3E-9                LLC      = -0.039              NOIMOD  = 2
+NOIA     = 2.00E19		NOIB     = 1.2E04	       NOIC	= 2.5E-13
+EM       = 3.0E07		EF       = 0.874               )

.MODEL nch.2 NMOS	(	LMIN     = '1.200E-06-dxl'         LMAX     = '1.000E-05-dxl'         
+WMIN     = '1.0000E-05-dxw'                                   WMAX     = 900.001e-6               
+LEVEL    = 49                  TNOM     = 25.0                VERSION  = 3.24                 
+TOX      = 'toxn'              TOXM     = 'toxn'              XJ       = 1.6000000E-07       
+NCH      = 3.9000000E17        LLN      = -1                  LWN      = 1.0000000           
+WLN      = 1.0000000           WWN      = 1                   LINT     = 1.0000000E-08       
+LL       = 0.00                LW       = 0.00                LWL      = 0.00                
+WINT     = 3.0000000E-09       WL       = 0.00                WW       = 0.00                
+WWL      = 0.00                MOBMOD   = 1                   BINUNIT  = 2                   
+XL       = '-0.02E-6+dxl'      XW       = '0.0+dxw'           DWG      = 0.00                
+DWB      = 0.00                ACM      = 12                  LDIF     = 9.00E-08            
+HDIF     = 'hdifn'             RSH      = 'rshn'              RD       = 0                   
+RS       = 0                                     
+VTH0     = '0.4304705+dvthn'   LVTH0    = 6.0612860E-08       WVTH0     = '0+dwvthn'
+PVTH0    = '0+dpvthn'
+K1       = 0.5127332           
+LK1      = 1.4908842E-08       K2       = 1.5913645E-02       LK2      = -1.1113380E-08      
+K3       = 0.00                DVT0     = 0.00                DVT1     = 0.00                
+DVT2     = 0.00                DVT0W    = 0.00                DVT1W    = 0.00                
+DVT2W    = 0.00                NLX      = 0.00                W0       = 0.00                
+K3B      = 0.00                VSAT     = '9.0658910E04+dvsatn'        
+LVSAT    = -6.5626380E-03      UA       = -5.6565540E-10      LUA      = -4.6432150E-16      
+UB       = 2.2395009E-18       LUB      = 7.3756760E-25       UC       = 1.0484686E-10       
+LUC      = 3.8983540E-17       RDSW     = 1.7000000E02        PRWB     = 0.00                
+PRWG     = 0.00                WR       = 1.0000000           U0       = 4.1872890E-02       
+LU0      = 3.2918090E-09       A0       = 0.4051807           LA0      = -3.4960930E-07      
+KETA     = 1.3601615E-02       LKETA    = -4.3207800E-08      A1       = 0.00                
+A2       = 0.9900000           AGS      = 2.0000000E-02       B0       = 0.00                
+B1       = 0.00                VOFF     = -0.1395267          LVOFF    = -1.0471327E-08      
+NFACTOR  = 1.0000000           CIT      = -1.2675909E-04      LCIT     = 2.6652050E-10       
+CDSC     = 0.00                CDSCB    = 0.00                CDSCD    = 0.00                
+ETA0     = 5.0000000E-05       ETAB     = -5.0000000E-05      DSUB     = 0.00                
+PCLM     = 0.7736172           LPCLM    = 2.6277317E-07       PDIBLC1  = 1.0000000E-06       
+PDIBLC2  = 3.9681830E-04       LPDIBLC2 = 3.0196909E-09       PDIBLCB  = 1.0000000E-02       
+DROUT    = 0.00                PSCBE1   = 1.7363640E08        LPSCBE1  = 2.6258182E+02        
+PSCBE2   = 1.0000000E-06       PVAG     = 0.00                DELTA    = 1.0000000E-02       
+ALPHA0   = 0.0                 ALPHA1   = 0.448150714         BETA0    = 11.59263            
+KT1      = -0.2240468          KT2      = -3.0265680E-02      LKT2     = -4.5534910E-12      
+AT       = 2.0000000E04        UTE      = -1.5799941          LUTE     = -5.7439520E-11      
+UA1      = 1.2240000E-09       UB1      = -1.1209769E-18      LUB1     = 4.5273160E-28       
+UC1      = 1.1635963E-11       LUC1     = 7.8277720E-20       KT1L     = 0.00                
+PRT      = 0                                   
+CJ       = cjn                 PB       = 0.6882682           MJ       = 0.3595262
+CJSW     = cjswn               PBSW     = 0.6882682           MJSW     = 0.2003879
+CJSWG    = cjswgn              PBSWG    = 0.6882682           MJSWG    = 0.43879
+CGDO     = cgon                CGSO     = cgon                TCJ      = 0.001040287
+TCJSW    = 0.000645489         TCJSWG   = 0.000645489         TPB      = 0.001554306
+TPBSW    = 0.001554306         TPBSWG   = 0.001554306
+JS       = 3.50E-07            JSW      = 1.45E-12             N        = 1
+XTI      = 3                   CAPMOD   = 3                   NQSMOD   = 0
+XPART    = 1                   CF       = 0                   TLEV     = 1
+TLEVC    = 1                   CALCACM  = 1                   SFVTFLAG = 0
+DLC      = 3E-9                LLC      = -0.039              NOIMOD  = 2
+NOIA     = 2.00E19		NOIB     = 1.2E04	       NOIC	= 2.5E-13
+EM       = 3.0E07		EF       = 0.874               )

.MODEL nch.3 NMOS	(	LMIN     = '5.000E-07-dxl'         LMAX     = '1.200E-06-dxl'         
+WMIN     = '1.0000E-05-dxw'                                   WMAX     = 900.001e-6               
+LEVEL    = 49                  TNOM     = 25.0                VERSION  = 3.24                 
+TOX      = 'toxn'              TOXM     = 'toxn'              XJ       = 1.6000000E-07       
+NCH      = 3.9000000E17        LLN      = -1                  LWN      = 1.0000000           
+WLN      = 1.0000000           WWN      = 1                   LINT     = 1.0000000E-08       
+LL       = 0.00                LW       = 0.00                LWL      = 0.00                
+WINT     = 3.0000000E-09       WL       = 0.00                WW       = 0.00                
+WWL      = 0.00                MOBMOD   = 1                   BINUNIT  = 2                   
+XL       = '-0.02E-6+dxl'      XW       = '0.0+dxw'           DWG      = 0.00                
+DWB      = 0.00                ACM      = 12                  LDIF     = 9.00E-08            
+HDIF     = 'hdifn'             RSH      = 'rshn'              RD       = 0                   
+RS       = 0                                      
+VTH0     = '0.4793240+dvthn'   LVTH0    = 3.9427570E-09       WVTH0     = '0+dwvthn'
+PVTH0    = '0+dpvthn'
+K1       = 0.5318048           
+LK1      = -7.2142450E-09      K2       = 4.8649130E-03       LK2      = 1.7031508E-09       
+K3       = 0.00                DVT0     = 0.00                DVT1     = 0.00                
+DVT2     = 0.00                DVT0W    = 0.00                DVT1W    = 0.00                
+DVT2W    = 0.00                NLX      = 0.00                W0       = 0.00                
+K3B      = 0.00                VSAT     = '8.5658600E04+dvsatn'        
+LVSAT    = -7.6228570E-04      UA       = -1.0347512E-09      LUA      = 7.9829650E-17       
+UB       = 3.0100842E-18       LUB      = -1.5630905E-25      UC       = 1.4678947E-10       
+LUC      = -9.6698940E-18      RDSW     = 1.7000000E02        PRWB     = 0.00                
+PRWG     = 0.00                WR       = 1.0000000           U0       = 4.3813580E-02       
+LU0      = 1.0406078E-09       A0       = -0.2911571          LA0      = 4.5814260E-07       
+KETA     = -1.5927499E-02      LKETA    = -8.9540280E-09      A1       = 0.00                
+A2       = 0.9900000           AGS      = 4.6247390E-02       LAGS     = -3.0446980E-08      
+B0       = 0.00                B1       = 0.00                VOFF     = -0.1621186          
+LVOFF    = 1.5735257E-08       NFACTOR  = 1.0000000           CIT      = -1.5788565E-04      
+LCIT     = 3.0262734E-10       CDSC     = 0.00                CDSCB    = 0.00                
+CDSCD    = 0.00                ETA0     = 1.7142866E-05       LETA0    = 3.8114280E-11       
+ETAB     = -1.7142866E-05      LETAB    = -3.8114280E-11      DSUB     = 0.00                
+PCLM     = 0.8687172           LPCLM    = 1.5245718E-07       PDIBLC1  = 1.0000000E-06       
+PDIBLC2  = 1.6847572E-03       LPDIBLC2 = 1.5256819E-09       PDIBLCB  = 1.0000000E-02       
+DROUT    = 0.00                PSCBE1   = 4.0000010E08        PSCBE2   = 1.0000000E-06       
+PVAG     = 0.00                DELTA    = 1.0000000E-02       ALPHA0   = 0.0                 
+ALPHA1   = 0.448150714         BETA0    = 11.59263            KT1      = -0.2290285          
+LKT1     = 5.7826780E-09       KT2      = -3.1611916E-02      LKT2     = 1.5570837E-09       
+AT       = 2.0000000E04        UTE      = -1.3504703          LUTE     = -2.6630502E-07      
+UA1      = 1.2266247E-09       LUA1     = -3.0446746E-18      UB1      = -8.5744080E-20      
+LUB1     = -1.2004174E-24      UC1      = 6.7886830E-11       LUC1     = -6.5172730E-17      
+KT1L     = 0.00                PRT      = 0                     
+CJ       = cjn                 PB       = 0.6882682           MJ       = 0.3595262
+CJSW     = cjswn               PBSW     = 0.6882682           MJSW     = 0.2003879
+CJSWG    = cjswgn              PBSWG    = 0.6882682           MJSWG    = 0.43879
+CGDO     = cgon                CGSO     = cgon                TCJ      = 0.001040287
+TCJSW    = 0.000645489         TCJSWG   = 0.000645489         TPB      = 0.001554306
+TPBSW    = 0.001554306         TPBSWG   = 0.001554306
+JS       = 3.50E-07            JSW      = 1.45E-12             N        = 1
+XTI      = 3                   CAPMOD   = 3                   NQSMOD   = 0
+XPART    = 1                   CF       = 0                   TLEV     = 1
+TLEVC    = 1                   CALCACM  = 1                   SFVTFLAG = 0
+DLC      = 3E-9                LLC      = -0.039              NOIMOD  = 2
+NOIA     = 2.00E19		NOIB     = 1.2E04	       NOIC	= 2.5E-13
+EM       = 3.0E07		EF       = 0.874               )

.MODEL nch.4 NMOS	(	LMIN     = 1.8e-007                 LMAX     = '5.000E-07-dxl'         
+WMIN     = '1.0000E-05-dxw'                                   WMAX     = 900.001e-6               
+LEVEL    = 49                  TNOM     = 25.0                VERSION  = 3.24                 
+TOX      = 'toxn'              TOXM     = 'toxn'              XJ       = 1.6000000E-07       
+NCH      = 3.9000000E17        LLN      = -1                  LWN      = 1.0000000           
+WLN      = 1.0000000           WWN      = 1                   LINT     = 1.0000000E-08       
+LL       = 0.00                LW       = 0.00                LWL      = 0.00                
+WINT     = 3.0000000E-09       WL       = 0.00                WW       = 0.00                
+WWL      = 0.00                MOBMOD   = 1                   BINUNIT  = 2                   
+XL       = '-0.02E-6+dxl'      XW       = '0.0+dxw'           DWG      = 0.00                
+DWB      = 0.00                ACM      = 12                  LDIF     = 9.00E-08            
+HDIF     = 'hdifn'             RSH      = 'rshn'              RD       = 0                   
+RS       = 0                                      
+VTH0     = '0.4752311+dvthn'   LVTH0    = 5.8255000E-09       WVTH0     = '0+dwvthn'
+PVTH0    = '0+dpvthn'
+K1       = 0.4096095           
+LK1      = 4.8995580E-08       K2       = 5.9309460E-02       LK2      = -2.3341336E-08      
+K3       = 0.00                DVT0     = 0.00                DVT1     = 0.00                
+DVT2     = 0.00                DVT0W    = 0.00                DVT1W    = 0.00                
+DVT2W    = 0.00                NLX      = 0.00                W0       = 0.00                
+K3B      = 0.00                VSAT     = '8.4438960E04+dvsatn'        
+LVSAT    = -2.0125005E-04      UA       = -8.5891920E-10      LUA      = -1.0530929E-18      
+UB       = 2.6581962E-18       LUB      = 5.5594780E-27       UC       = 1.1678118E-10       
+LUC      = 4.1339190E-18       RDSW     = 1.7000000E02        PRWB     = 0.00                
+PRWG     = 0.00                WR       = 1.0000000           U0       = 4.3354470E-02       
+LU0      = 1.2517989E-09       A0       = 0.5407774           LA0      = 7.5452710E-08       
+KETA     = -4.1823270E-02      LKETA    = 2.9580252E-09       A1       = 0.00                
+A2       = 0.9900000           AGS      = -1.9916179E-02      LAGS     = -1.1735286E-11      
+B0       = 0.00                B1       = 0.00                VOFF     = -0.1245498          
+LVOFF    = -1.5463618E-09      NFACTOR  = 1.0000000           CIT      = 2.7188900E-04       
+LCIT     = 1.0493098E-10       CDSC     = 0.00                CDSCB    = 0.00                
+CDSCD    = 0.00                ETA0     = -2.9375011E-04      LETA0    = 1.8112505E-10       
+ETAB     = 1.3875004E-03       LETAB    = -6.8425020E-10      DSUB     = 0.00                
+PCLM     = 1.1076791           LPCLM    = 4.2534670E-08       PDIBLC1  = 1.0000000E-06       
+PDIBLC2  = -5.9354060E-03      LPDIBLC2 = 5.0309570E-09       PDIBLCB  = 1.0000000E-02       
+DROUT    = 0.00                PSCBE1   = 4.0000000E08        PSCBE2   = 1.0000000E-06       
+PVAG     = 0.00                DELTA    = 1.0000000E-02       ALPHA0   = 0.0                 
+ALPHA1   = 0.448150714         BETA0    = 11.59263            KT1      = -0.2271500          
+LKT1     = 4.9185610E-09       KT2      = -2.9537767E-02      LKT2     = 6.0297430E-10       
+AT       = 2.0000000E04        UTE      = -2.0822306          LUTE     = 7.0304750E-08       
+UA1      = 1.2182583E-09       LUA1     = 8.0390990E-19       UB1      = -3.5266740E-18      
+LUB1     = 3.8241010E-25       UC1      = -1.3815420E-10      LUC1     = 2.9606131E-17       
+KT1L     = 0.00                PRT      = 0                       
+CJ       = cjn                 PB       = 0.6882682           MJ       = 0.3595262
+CJSW     = cjswn               PBSW     = 0.6882682           MJSW     = 0.2003879
+CJSWG    = cjswgn              PBSWG    = 0.6882682           MJSWG    = 0.43879
+CGDO     = cgon                CGSO     = cgon                TCJ      = 0.001040287
+TCJSW    = 0.000645489         TCJSWG   = 0.000645489         TPB      = 0.001554306
+TPBSW    = 0.001554306         TPBSWG   = 0.001554306
+JS       = 3.50E-07            JSW      = 1.45E-12             N        = 1
+XTI      = 3                   CAPMOD   = 3                   NQSMOD   = 0
+XPART    = 1                   CF       = 0                   TLEV     = 1
+TLEVC    = 1                   CALCACM  = 1                   SFVTFLAG = 0
+DLC      = 3E-9                LLC      = -0.039              NOIMOD  = 2
+NOIA     = 2.00E19		NOIB     = 1.2E04	       NOIC	= 2.5E-13
+EM       = 3.0E07		EF       = 0.874               )

.MODEL nch.5 NMOS	(	LMIN     = '1.000E-05-dxl'         LMAX     = 20.001e-006              
+WMIN     = '1.2000E-06-dxw'                                   WMAX     = '1.0000E-05-dxw'         
+LEVEL    = 49                  TNOM     = 25.0                VERSION  = 3.24                 
+TOX      = 'toxn'              TOXM     = 'toxn'              XJ       = 1.6000000E-07       
+NCH      = 3.9000000E17        LLN      = -1                  LWN      = 1.0000000           
+WLN      = 1.0000000           WWN      = 1                   LINT     = 1.0000000E-08       
+LL       = 0.00                LW       = 0.00                LWL      = 0.00                
+WINT     = 3.0000000E-09       WL       = 0.00                WW       = 0.00                
+WWL      = 0.00                MOBMOD   = 1                   BINUNIT  = 2                   
+XL       = '-0.02E-6+dxl'      XW       = '0.0+dxw'           DWG      = 0.00                
+DWB      = 0.00                ACM      = 12                  LDIF     = 9.00E-08            
+HDIF     = 'hdifn'             RSH      = 'rshn'              RD       = 0                   
+RS       = 0                                      
+VTH0     = '0.4364873+dvthn'   WVTH0    = '6.8761140E-10+dwvthn' PVTH0    = '0+dpvthn'     
+K1       = 0.5102321           
+WK1      = 3.9956060E-08       K2       = 1.6091494E-02       WK2      = -1.2928737E-08      
+K3       = 0.00                DVT0     = 0.00                DVT1     = 0.00                
+DVT2     = 0.00                DVT0W    = 0.00                DVT1W    = 0.00                
+DVT2W    = 0.00                NLX      = 0.00                W0       = 0.00                
+K3B      = 0.00                VSAT     = '9.0000010E04+dvsatn'        
+UA       = -5.8859420E-10      WUA      = -2.3665659E-16      UB       = 2.3329335E-18       
+WUB      = -1.9367960E-25      UC       = 1.1057788E-10       WUC      = -1.8159270E-17      
+RDSW     = 1.7000000E02        PRWB     = 0.00                PRWG     = 0.00                
+WR       = 1.0000000           U0       = 4.3035900E-02       WU0      = -8.3200990E-09      
+A0       = 0.3702259           WA0      = -1.4643313E-09      KETA     = 1.0357677E-02       
+WKETA    = -1.0935369E-08      A1       = 0.00                A2       = 0.9900000           
+AGS      = 2.0000000E-02       B0       = 0.00                B1       = 0.00                
+VOFF     = -0.1406671          WVOFF    = 8.9072240E-10       NFACTOR  = 1.0000000           
+CIT      = -1.0000001E-04      CDSC     = 0.00                CDSCB    = 0.00                
+CDSCD    = 0.00                ETA0     = 5.0000000E-05       ETAB     = -5.0000000E-05      
+DSUB     = 0.00                PCLM     = 0.8000001           PDIBLC1  = 1.0000000E-06       
+PDIBLC2  = 6.9999990E-04       PDIBLCB  = 1.0000000E-02       DROUT    = 0.00                
+PSCBE1   = 2.0000003E08        PSCBE2   = 1.0000000E-06       PVAG     = 0.00                
+DELTA    = 1.0000000E-02       ALPHA0   = 0.0                 ALPHA1   = 0.448150714         
+BETA0    = 11.59263            KT1      = -0.2232244          WKT1     = -8.2151660E-09      
+KT2      = -3.0428693E-02      WKT2     = 1.6245854E-09       AT       = 2.0000000E04        
+UTE      = -1.5803809          WUTE     = 3.8084330E-09       UA1      = 1.2240000E-09       
+UB1      = -1.0684574E-18      WUB1     = -5.2442470E-25      UC1      = 2.4230474E-11       
+WUC1     = -1.2579110E-16      PUC1     = -1.4905616E-28      KT1L     = 0.00                
+PRT      = 0                               
+CJ       = cjn                 PB       = 0.6882682           MJ       = 0.3595262
+CJSW     = cjswn               PBSW     = 0.6882682           MJSW     = 0.2003879
+CJSWG    = cjswgn              PBSWG    = 0.6882682           MJSWG    = 0.43879
+CGDO     = cgon                CGSO     = cgon                TCJ      = 0.001040287
+TCJSW    = 0.000645489         TCJSWG   = 0.000645489         TPB      = 0.001554306
+TPBSW    = 0.001554306         TPBSWG   = 0.001554306
+JS       = 3.50E-07            JSW      = 1.45E-12             N        = 1
+XTI      = 3                   CAPMOD   = 3                   NQSMOD   = 0
+XPART    = 1                   CF       = 0                   TLEV     = 1
+TLEVC    = 1                   CALCACM  = 1                   SFVTFLAG = 0
+DLC      = 3E-9                LLC      = -0.039              NOIMOD  = 2
+NOIA     = 2.00E19		NOIB     = 1.2E04	       NOIC	= 2.5E-13
+EM       = 3.0E07		EF       = 0.874               )

.MODEL nch.6 NMOS	(	LMIN     = '1.200E-06-dxl'         LMAX     = '1.000E-05-dxl'         
+WMIN     = '1.2000E-06-dxw'                                   WMAX     = '1.0000E-05-dxw'         
+LEVEL    = 49                  TNOM     = 25.0                VERSION  = 3.24                 
+TOX      = 'toxn'              TOXM     = 'toxn'              XJ       = 1.6000000E-07       
+NCH      = 3.9000000E17        LLN      = -1                  LWN      = 1.0000000           
+WLN      = 1.0000000           WWN      = 1                   LINT     = 1.0000000E-08       
+LL       = 0.00                LW       = 0.00                LWL      = 0.00                
+WINT     = 3.0000000E-09       WL       = 0.00                WW       = 0.00                
+WWL      = 0.00                MOBMOD   = 1                   BINUNIT  = 2                   
+XL       = '-0.02E-6+dxl'      XW       = '0.0+dxw'           DWG      = 0.00                
+DWB      = 0.00                ACM      = 12                  LDIF     = 9.00E-08            
+HDIF     = 'hdifn'             RSH      = 'rshn'              RD       = 0                   
+RS       = 0                                      
+VTH0     = '0.4303924+dvthn'   LVTH0    = 6.0706090E-08       WVTH0    = '7.8115020E-10+dwvthn'       
+PVTH0    = '-9.3168750E-16+dpvthn'      K1       = 0.5085090           LK1      = 1.7161611E-08       
+WK1      = 4.2216520E-08       PK1      = -2.2514154E-14      K2       = 1.7310230E-02       
+LK2      = -1.2138612E-08      WK2      = -1.3957471E-08      PK2      = 1.0246181E-14       
+K3       = 0.00                DVT0     = 0.00                DVT1     = 0.00                
+DVT2     = 0.00                DVT0W    = 0.00                DVT1W    = 0.00                
+DVT2W    = 0.00                NLX      = 0.00                W0       = 0.00                
+K3B      = 0.00                VSAT     = '9.0678020E04+dvsatn'        
+LVSAT    = -6.7530250E-03      WVSAT    = -1.9104627E-04      PVSAT    = 1.9027204E-09       
+UA       = -5.3771250E-10      LUA      = -5.0678040E-16      WUA      = -2.7926046E-16      
+PUA      = 4.2433420E-22       UB       = 2.2537915E-18       LUB      = 7.8825360E-25       
+WUB      = -1.4282058E-25      PUB      = -5.0655580E-31      UC       = 1.0657759E-10       
+LUC      = 3.9842870E-17       WUC      = -1.7297008E-17      PUC      = -8.5881340E-24      
+RDSW     = 1.7000000E02        PRWB     = 0.00                PRWG     = 0.00                
+WR       = 1.0000000           U0       = 4.2730270E-02       LU0      = 3.0440912E-09       
+WU0      = -8.5686630E-09      PU0      = 2.4756895E-15       A0       = 0.4062600           
+LA0      = -3.5889950E-07      WA0      = -1.0786144E-08      PA0      = 9.2845460E-14       
+KETA     = 1.4894814E-02       LKETA    = -4.5189890E-08      WKETA    = -1.2924230E-08      
+PKETA    = 1.9809019E-14       A1       = 0.00                A2       = 0.9900000           
+AGS      = 2.0000000E-02       B0       = 0.00                B1       = 0.00                
+VOFF     = -0.1395822          LVOFF    = -1.0806052E-08      WVOFF    = 5.5485390E-10       
+PVOFF    = 3.3452410E-15       NFACTOR  = 1.0000000           CIT      = -1.2675911E-04      
+LCIT     = 2.6652053E-10       CDSC     = 0.00                CDSCB    = 0.00                
+CDSCD    = 0.00                ETA0     = 5.0000000E-05       ETAB     = -5.0000000E-05      
+DSUB     = 0.00                PCLM     = 0.7755287           LPCLM    = 2.4373449E-07       
+WPCLM    = -1.9103656E-08      PPCLM    = 1.9027247E-13       PDIBLC1  = 1.0000000E-06       
+PDIBLC2  = 3.9681810E-04       LPDIBLC2 = 3.0196912E-09       PDIBLCB  = 1.0000000E-02       
+DROUT    = 0.00                PSCBE1   = 1.7363640E08        LPSCBE1  = 2.6258185E02        
+PSCBE2   = 1.0000000E-06       PVAG     = 0.00                DELTA    = 1.0000000E-02       
+ALPHA0   = 0.0                 ALPHA1   = 0.448150714         BETA0    = 11.59263            
+KT1      = -0.2231775          LKT1     = -4.6746150E-10      WKT1     = -8.6881510E-09      
+PKT1     = 4.7109120E-15       KT2      = -3.0469729E-02      LKT2     = 4.0873210E-10       
+WKT2     = 2.0392819E-09       PKT2     = -4.1303770E-15      AT       = 2.0000000E04        
+UTE      = -1.5809486          LUTE     = 5.6541540E-09       WUTE     = 9.5395260E-09       
+PUTE     = -5.7081670E-14      UA1      = 1.2240000E-09       UB1      = -1.0643074E-18      
+LUB1     = -4.1333620E-26      WUB1     = -5.6635370E-25      PUB1     = 4.1761280E-31       
+UC1      = 2.4967807E-11       LUC1     = -7.3437550E-18      WUC1     = -1.3323848E-16      
+PUC1     = 7.4175780E-23       KT1L     = 0.00                PRT      = 0                   
+CJ       = cjn                 PB       = 0.6882682           MJ       = 0.3595262
+CJSW     = cjswn               PBSW     = 0.6882682           MJSW     = 0.2003879
+CJSWG    = cjswgn              PBSWG    = 0.6882682           MJSWG    = 0.43879
+CGDO     = cgon                CGSO     = cgon                TCJ      = 0.001040287
+TCJSW    = 0.000645489         TCJSWG   = 0.000645489         TPB      = 0.001554306
+TPBSW    = 0.001554306         TPBSWG   = 0.001554306
+JS       = 3.50E-07            JSW      = 1.45E-12             N        = 1
+XTI      = 3                   CAPMOD   = 3                   NQSMOD   = 0
+XPART    = 1                   CF       = 0                   TLEV     = 1
+TLEVC    = 1                   CALCACM  = 1                   SFVTFLAG = 0
+DLC      = 3E-9                LLC      = -0.039              NOIMOD  = 2
+NOIA     = 2.00E19		NOIB     = 1.2E04	       NOIC	= 2.5E-13
+EM       = 3.0E07		EF       = 0.874               )

.MODEL nch.7 NMOS	(	LMIN     = '5.000E-07-dxl'         LMAX     = '1.200E-06-dxl'         
+WMIN     = '1.2000E-06-dxw'                                   WMAX     = '1.0000E-05-dxw'         
+LEVEL    = 49                  TNOM     = 25.0                VERSION  = 3.24                 
+TOX      = 'toxn'              TOXM     = 'toxn'              XJ       = 1.6000000E-07       
+NCH      = 3.9000000E17        LLN      = -1                  LWN      = 1.0000000           
+WLN      = 1.0000000           WWN      = 1                   LINT     = 1.0000000E-08       
+LL       = 0.00                LW       = 0.00                LWL      = 0.00                
+WINT     = 3.0000000E-09       WL       = 0.00                WW       = 0.00                
+WWL      = 0.00                MOBMOD   = 1                   BINUNIT  = 2                   
+XL       = '-0.02E-6+dxl'      XW       = '0.0+dxw'           DWG      = 0.00                
+DWB      = 0.00                ACM      = 12                  LDIF     = 9.00E-08            
+HDIF     = 'hdifn'             RSH      = 'rshn'              RD       = 0                   
+RS       = 0                                      
+VTH0     = '0.4799949+dvthn'   LVTH0    = 3.1671320E-09       WVTH0    = '-6.7044360E-09+dwvthn'      
+PVTH0    = '7.7515980E-15+dpvthn'      K1       = 0.5329412           LK1      = -1.1179709E-08      
+WK1      = -1.1356744E-08      PK1      = 3.9630840E-14       K2       = 3.8880950E-03       
+LK2      = 3.4310650E-09       WK2      = 9.7623110E-09       PK2      = -1.7268767E-14      
+K3       = 0.00                DVT0     = 0.00                DVT1     = 0.00                
+DVT2     = 0.00                DVT0W    = 0.00                DVT1W    = 0.00                
+DVT2W    = 0.00                NLX      = 0.00                W0       = 0.00                
+K3B      = 0.00                VSAT     = '8.5513590E04+dvsatn'        
+LVSAT    = -7.6228650E-04      WVSAT    = 1.4492224E-03       UA       = -1.0276002E-09      
+LUA      = 6.1489260E-17       WUA      = -7.1467150E-17      PUA      = 1.8329395E-22       
+UB       = 3.0435232E-18       LUB      = -1.2783527E-25      WUB      = -3.3419020E-25      
+PUB      = -2.8456703E-31      UC       = 1.4653272E-10       LUC      = -6.5050680E-18      
+WUC      = 2.5660584E-18       PUC      = -3.1629300E-23      RDSW     = 1.7000000E02        
+PRWB     = 0.00                PRWG     = 0.00                WR       = 1.0000000           
+U0       = 4.4526490E-02       LU0      = 9.6047130E-10       WU0      = -7.1248670E-09      
+PU0      = 8.0088650E-16       A0       = -0.3035701          LA0      = 4.6450350E-07       
+WA0      = 1.2405528E-07       PA0      = -6.3570630E-14      KETA     = -1.5493870E-02      
+LKETA    = -9.9390180E-09      WKETA    = -4.3336820E-09      PKETA    = 9.8439870E-15       
+A1       = 0.00                A2       = 0.9900000           AGS      = 4.9808680E-02       
+LAGS     = -3.4578080E-08      WAGS     = -3.5591570E-08      PAGS     = 4.1286230E-14       
+B0       = 0.00                B1       = 0.00                VOFF     = -0.1627226          
+LVOFF    = 1.6036822E-08       WVOFF    = 6.0367980E-09       PVOFF    = -3.0138140E-15      
+NFACTOR  = 1.0000000           CIT      = -1.5788565E-04      LCIT     = 3.0262734E-10       
+CDSC     = 0.00                CDSCB    = 0.00                CDSCD    = 0.00                
+ETA0     = 1.7142869E-05       LETA0    = 3.8114280E-11       ETAB     = -1.7142869E-05      
+LETAB    = -3.8114280E-11      DSUB     = 0.00                PCLM     = 0.8548421           
+LPCLM    = 1.5173094E-07       WPCLM    = 1.3866737E-07       PPCLM    = 7.2580320E-15       
+PDIBLC1  = 1.0000000E-06       PDIBLC2  = 1.7737894E-03       LPDIBLC2 = 1.4224044E-09       
+WPDIBLC2 = -8.8978950E-10      PPDIBLC2 = 1.0321563E-15       PDIBLCB  = 1.0000000E-02       
+DROUT    = 0.00                PSCBE1   = 4.0000010E08        PSCBE2   = 1.0000000E-06       
+PVAG     = 0.00                DELTA    = 1.0000000E-02       ALPHA0   = 0.0                 
+ALPHA1   = 0.448150714         BETA0    = 11.59263            KT1      = -0.2286601          
+LKT1     = 5.8923870E-09       WKT1     = -3.6818220E-09      PKT1     = -1.0964308E-15      
+KT2      = -3.1479932E-02      LKT2     = 1.5805686E-09       WKT2     = -1.3190541E-09      
+PKT2     = -2.3470743E-16      AT       = 2.0000000E04        UTE      = -1.3089141          
+LUTE     = -3.0990586E-07      WUTE     = -4.1531240E-07      PUTE     = 4.3574660E-13       
+UA1      = 1.2269809E-09       LUA1     = -3.4577810E-18      WUA1     = -3.5591300E-18      
+PUA1     = 4.1285910E-24       UB1      = 7.5674550E-20       LUB1     = -1.3637128E-24      
+WUB1     = -1.6132161E-24      PUB1     = 1.6319734E-30       UC1      = 8.5944920E-11       
+LUC1     = -7.8077210E-17      WUC1     = -1.8047248E-16      PUC1     = 1.2896722E-22       
+KT1L     = 0.00                PRT      = 0                        
+CJ       = cjn                 PB       = 0.6882682           MJ       = 0.3595262
+CJSW     = cjswn               PBSW     = 0.6882682           MJSW     = 0.2003879
+CJSWG    = cjswgn              PBSWG    = 0.6882682           MJSWG    = 0.43879
+CGDO     = cgon                CGSO     = cgon                TCJ      = 0.001040287
+TCJSW    = 0.000645489         TCJSWG   = 0.000645489         TPB      = 0.001554306
+TPBSW    = 0.001554306         TPBSWG   = 0.001554306
+JS       = 3.50E-07            JSW      = 1.45E-12             N        = 1
+XTI      = 3                   CAPMOD   = 3                   NQSMOD   = 0
+XPART    = 1                   CF       = 0                   TLEV     = 1
+TLEVC    = 1                   CALCACM  = 1                   SFVTFLAG = 0
+DLC      = 3E-9                LLC      = -0.039              NOIMOD  = 2
+NOIA     = 2.00E19		NOIB     = 1.2E04	       NOIC	= 2.5E-13
+EM       = 3.0E07		EF       = 0.874               )

.MODEL nch.8 NMOS	(	LMIN     = 1.8e-007                 LMAX     = '5.000E-07-dxl'         
+WMIN     = '1.2000E-06-dxw'                                   WMAX     = '1.0000E-05-dxw'         
+LEVEL    = 49                  TNOM     = 25.0                VERSION  = 3.24                 
+TOX      = 'toxn'              TOXM     = 'toxn'              XJ       = 1.6000000E-07       
+NCH      = 3.9000000E17        LLN      = -1                  LWN      = 1.0000000           
+WLN      = 1.0000000           WWN      = 1                   LINT     = 1.0000000E-08       
+LL       = 0.00                LW       = 0.00                LWL      = 0.00                
+WINT     = 3.0000000E-09       WL       = 0.00                WW       = 0.00                
+WWL      = 0.00                MOBMOD   = 1                   BINUNIT  = 2                   
+XL       = '-0.02E-6+dxl'      XW       = '0.0+dxw'           DWG      = 0.00                
+DWB      = 0.00                ACM      = 12                  LDIF     = 9.00E-08            
+HDIF     = 'hdifn'             RSH      = 'rshn'              RD       = 0                   
+RS       = 0                                      
+VTH0     = '0.4751966+dvthn'   LVTH0    = 5.3743360E-09       WVTH0    = '3.4482360E-10+dwvthn'       
+PVTH0    = '4.5089380E-15+dpvthn'      K1       = 0.4007356           LK1      = 4.9634880E-08       
+WK1      = 8.8686750E-08       PK1      = -6.3891820E-15      K2       = 6.3188600E-02       
+LK2      = -2.3847164E-08      WK2      = -3.8768180E-08      PK2      = 5.0552590E-15       
+K3       = 0.00                DVT0     = 0.00                DVT1     = 0.00                
+DVT2     = 0.00                DVT0W    = 0.00                DVT1W    = 0.00                
+DVT2W    = 0.00                NLX      = 0.00                W0       = 0.00                
+K3B      = 0.00                VSAT     = '8.4294280E04+dvsatn'        
+LVSAT    = -2.0140363E-04      WVSAT    = 1.4459029E-03       PVSAT    = 1.5350395E-12       
+UA       = -9.0172960E-10      LUA      = 3.5887640E-18       WUA      = 4.2784730E-16       
+PUA      = -4.6390690E-23      UB       = 2.7527719E-18       LUB      = 5.9103390E-27       
+WUB      = -9.4519130E-25      PUB      = -3.5064990E-33      UC       = 1.2291169E-10       
+LUC      = 4.3605990E-18       WUC      = -6.1268420E-17      PUC      = -2.2654354E-24      
+RDSW     = 1.7000000E02        PRWB     = 0.00                PRWG     = 0.00                
+WR       = 1.0000000           U0       = 4.3840840E-02       LU0      = 1.2758692E-09       
+WU0      = -4.8608560E-09      PU0      = -2.4055863E-16      A0       = 0.5262308           
+LA0      = 8.2795080E-08       WA0      = 1.4537927E-07       PA0      = -7.3379640E-14      
+KETA     = -4.4118840E-02      LKETA    = 3.2284670E-09       WKETA    = 2.2941933E-08       
+PKETA    = -2.7027957E-15      A1       = 0.00                A2       = 0.9900000           
+AGS      = -2.7693154E-02      LAGS     = 1.0727657E-09       WAGS     = 7.7723050E-08       
+PAGS     = -1.0838496E-14      B0       = 0.00                B1       = 0.00                
+VOFF     = -0.1247105          LVOFF    = -1.4487617E-09      WVOFF    = 1.6054964E-09       
+PVOFF    = -9.7541500E-16      NFACTOR  = 1.0000000           CIT      = 2.7498236E-04       
+LCIT     = 1.0350804E-10       WCIT     = -3.0914837E-11      PCIT     = 1.4220811E-17       
+CDSC     = 0.00                CDSCB    = 0.00                CDSCD    = 0.00                
+ETA0     = -2.9405078E-04      LETA0    = 1.8126334E-10       WETA0    = 3.0046217E-12       
+PETA0    = -1.3821218E-18      ETAB     = 1.3878694E-03       LETAB    = -6.8441990E-10      
+WETAB    = -3.6866540E-12      PETAB    = 1.6959704E-18       DSUB     = 0.00                
+PCLM     = 1.1010191           LPCLM    = 3.8489530E-08       WPCLM    = 6.6560680E-08       
+PPCLM    = 4.0427110E-14       PDIBLC1  = 1.0000000E-06       PDIBLC2  = -6.1190130E-03      
+LPDIBLC2 = 5.0530930E-09       WPDIBLC2 = 1.8349379E-09       PPDIBLC2 = -2.2121929E-16      
+PDIBLCB  = 1.0000000E-02       DROUT    = 0.00                PSCBE1   = 4.0000000E08        
+PSCBE2   = 1.0000000E-06       PVAG     = 0.00                DELTA    = 1.0000000E-02       
+ALPHA0   = 0.0                 ALPHA1   = 0.448150714         BETA0    = 11.59263            
+KT1      = -0.2269240          LKT1     = 5.0937890E-09       WKT1     = -2.2583577E-09      
+PKT1     = -1.7512235E-15      KT2      = -2.9338669E-02      LKT2     = 5.9558730E-10       
+WKT2     = -1.9897783E-09      PKT2     = 7.3825670E-17       AT       = 2.0000000E04        
+UTE      = -2.1610963          LUTE     = 8.2097990E-08       WUTE     = 7.8818350E-07       
+PUTE     = -1.1786150E-13      UA1      = 1.2174792E-09       LUA1     = 9.1298580E-19       
+WUA1     = 7.7858620E-18       PUA1     = -1.0901051E-24      UB1      = -3.8124500E-18      
+LUB1     = 4.2482470E-25       WUB1     = 2.8560549E-24       PUB1     = -4.2389140E-31      
+UC1      = -1.5406690E-10      LUC1     = 3.2328220E-17       WUC1     = 1.5903152E-16       
+PUC1     = -2.7204607E-23      KT1L     = 0.00                PRT      = 0                   
+CJ       = cjn                 PB       = 0.6882682           MJ       = 0.3595262
+CJSW     = cjswn               PBSW     = 0.6882682           MJSW     = 0.2003879
+CJSWG    = cjswgn              PBSWG    = 0.6882682           MJSWG    = 0.43879
+CGDO     = cgon                CGSO     = cgon                TCJ      = 0.001040287
+TCJSW    = 0.000645489         TCJSWG   = 0.000645489         TPB      = 0.001554306
+TPBSW    = 0.001554306         TPBSWG   = 0.001554306
[...]
+ SUBS   = 1               )                                                  
*
.ENDL BIP
*************************
*                       *
* 0.18um   3.3V bipolar *
*                       *
*************************
.LIB TT_BIP3
.param
+isa3= 1         bfa3= 1         nfa3= 1         rba3= 1         rea3= 1         
+rca3= 1         rbma3= 1        cjea3= 1        cjca3= 1         
.lib 'log018.l' BIP3
.ENDL TT_BIP3

.LIB SS_BIP3
.param
+isa3= 0.70      bfa3= 0.85      nfa3= 1.005     rba3= 1.2       rea3=  1.2        
+rca3= 1.2       rbma3= 1.2      cjea3= 1.05     cjca3= 1.05      
.lib 'log018.l' BIP3
.ENDL SS_BIP3

.LIB FF_BIP3
.param
+isa3= 1.30      bfa3= 1.15      nfa3= 0.995     rba3= 0.8       rea3= 0.8        
+rca3= 0.8       rbma3= 0.8      cjea3= 0.95     cjca3= 0.95      
.lib 'log018.l' BIP3
.ENDL FF_BIP3


.LIB BIP3
*
.MODEL PNP10_3 PNP (                                  LEVEL  = 1               
+ BF     = '2.715*bfa3'    NF     = '1.011*nfa3'    IS     = '1.5353E-17*isa3'        
+ ISE    = '1.5353E-17*isa3'  ISC    = '1.5353E-17*isa3'  NE     = 1.2977142         
+ RB     = '33.063401*rba3'  IRB    = 1.401332E-3   RBM    = '1.0965611*rbma3'         
+ RE     = '1.3979963*rea3'  IKF    = 2.05254E-3    NKF    = 0.477972          
+ VAF    = 361.145         BR     = 9.0433E-3       NR     = 0.9908706         
+ NC     = 0.9007513       RC     = '20.08*rca3'    IKR    = 1.98804E-4        
+ VAR    = 27.84541        XTI    = 3               EG     = 1.17              
+ XTB    = 0               TRB1   = 1.493714E-3     TIRB1  = 1.375303E-5       
+ TRM1   = 1.074565E-5     TRE1   = 1.068665E-4     TIKF1  = -3.912025E-3      
+ TIKR1  = -3.93E-3        TRC1   = 8E-5            TBF1   = 5.11E-3           
+ TBF2   = 1E-6            TNF1   = -1.0025E-4      TNE1   = 2.00234E-4        
+ TVAF1  = -5E-3           TBR1   = -1.95E-3        TBR2   = 2.25E-5           
+ TNC1   = 8.022278E-5     TNC2   = 0               TNR1   = -2.025978E-4      
+ TNR2   = 0               CJE    = '1.124556E-13*cjea3'  VJE    = 0.8049122         
+ MJE    = 0.3845495       FC     = 0               CJC    = '6.353976E-14*cjca3'      
+ VJC    = 0.5846489       MJC    = 0.2883243       TLEV   = 0                
+ TLEVC  = 1               CTE    = 9.700197E-4     CTC    = 1.9425E-3        
+ TVJE   = 1.625007E-3     TVJC   = 2.819E-3        TREF   = 25               
+ SUBS   = 1               )                                                  
*
.MODEL PNP5_3 PNP (                                   LEVEL  = 1         
+ BF     = '2.725*bfa3'    NF     = '1.011*nfa3'  IS     = '3.5351E-18*isa3'      
+ ISE    = '3.5351E-18*isa3'  ISC    = '3.5351E-18*isa3'  NE     = 1.3977142       
+ RB     = '54.76734*rba3'  IRB    = 1.401332E-3    RBM    = '1.0965611*rbma3'       
+ RE     = '1.3979963*rea3'  IKF    = 1.1254E-3     NKF    = 0.477972        
+ VAF    = 372.731         BR     = 3.5513E-3       NR     = 0.993881        
+ NC     = 0.98076         RC     = '20.08*rca3'    IKR    = 1.98804E-4      
+ VAR    = 22.44541        XTI    = 3               EG     = 1.17            
+ XTB    = 0               TRB1   = 1.493714E-3     TIRB1  = 1.375303E-5     
+ TRM1   = 1.074565E-5     TRE1   = 1.068665E-4     TIKF1  = -2.752025E-3    
+ TIKR1  = -3.93E-3        TRC1   = 8E-5            TBF1   = 5.2E-3          
+ TBF2   = 1.1E-6          TNF1   = -1.056025E-4    TNE1   = 2.152336E-4     
+ TVAF1  = -4E-5           TBR1   = -1.01E-3        TBR2   = 1.3E-5          
+ TNC1   = 1.122277E-4     TNC2   = 0               TNR1   = -1.026101E-4    
+ TNR2   = 0               CJE    = '3.034505E-14*cjea3'    VJE    = 0.8049122         
+ MJE    = 0.3745495       FC     = 0               CJC    = '3.728498E-14*cjca3'    
+ VJC    = 0.5846489       MJC    = 0.2783243       TLEV   = 0               
+ TLEVC  = 1               CTE    = 9.500197E-4     CTC    = 2.0325E-3      
+ TVJE   = 1.625007E-3     TVJC   = 3.009E-3        TREF   = 25             
+ SUBS   = 1               )                                                 
*
.MODEL PNP2_3 PNP (                                   LEVEL  = 1               
+ BF     = '2.7351*bfa3'   NF     = '1.012*nfa3'   IS     = '8.03515E-19*isa3'     
+ ISE    = '8.03515E-19*isa3'  ISC    = '8.03515E-19*isa3'  NE     = 1.2977142       
+ RB     = '102.76734*rba3'  IRB    = 1.401332E-3   RBM    = '1.0965611*rbma3'       
+ RE     = '1.297997*rea3' IKF    = 4.02541E-4      NKF    = 0.427981        
+ VAF    = 126.168         BR     = 1.1153E-3       NR     = 1.013671        
+ NC     = 0.920748        RC     = '20.08*rca3'    IKR    = 1.98804E-4      
+ VAR    = 20.0151         XTI    = 3               EG     = 1.17            
+ XTB    = 0               TRB1   = 1.493714E-3     TIRB1  = 1.375303E-5     
+ TRM1   = 1.074565E-5     TRE1   = 1.068665E-4     TIKF1  = -4.31203E-3     
+ TIKR1  = -3.93E-3        TRC1   = 8E-5            TBF1   = 5.85E-3         
+ TBF2   = 3E-6            TNF1   = -1.056025E-4    TNE1   = 2.152336E-4     
+ TVAF1  = -1E-3           TBR1   = -1.5E-3         TBR2   = 1.65E-5         
+ TNC1   = 1.122198E-4     TNC2   = 0               TNR1   = -2.425601E-4    
+ TNR2   = 0               CJE    = '5.92616E-15*cjea3'  VJE    = 0.8049122         
+ MJE    = 0.3495495       FC     = 0               CJC    = '2.432423E-14*cjca3'    
+ VJC    = 0.5846489       MJC    = 0.2673243       TLEV   = 0              
+ TLEVC  = 1               CTE    = 9.000197E-4     CTC    = 1.9025E-3      
+ TVJE   = 1.625007E-3     TVJC   = 2.959E-3        TREF   = 25              
+ SUBS   = 1               )                                                 
*                                                                            
.ENDL BIP3
*
*************************
*                       *
* 0.18um   1.8V diode   *
*                       *
*************************
*
.LIB DIO
*
.MODEL NDIO D (                                     LEVEL  = 3
+ IS     = 3.50E-7         RS     = 1.0E-10         N      = 1.03
+ BV     = 11.10           IBV    = 1E-3            IK     = 1E20
+ IKR    = 1E10            JSW    = 4.00E-13        AREA   = 7.5E-8
+ PJ     = 1.1E-3          CJ     = 1.000266E-3     PB     = 0.6882682
+ MJ     = 0.3595262       CJSW   = 2.040547E-10    PHP    = 0.6882682
+ MJSW   = 0.2003879       TLEV   = 1               EG     = 1.17
+ XTI    = 3               TCV    = -9.3E-4         TRS    = 1.62E-3
+ TLEVC  = 1               CTA    = 1.040287E-3     CTP    = 6.45489E-4
+ TPB    = 1.554306E-3     TPHP   = 1.554306E-3     TREF   = 25
+ FC     = 0               FCS    = 0               )
*
.MODEL PDIO D (                                     LEVEL  = 3
+ IS     = 2.50E-7         RS     = 1.0E-10         N      = 1.03
+ BV     = 10.1            IBV    = 1E-3            IK     = 1E20
+ IKR    = 1E10            JSW    = 4.00E-13        AREA   = 7.5E-8
+ PJ     = 1.1E-3          CJ     = 1.121E-3        PB     = 0.895226
+ MJ     = 0.4476          CJSW   = 2.481E-10       PHP    = 0.895226
+ MJSW   = 0.3683619       TLEV   = 1               EG     = 1.17
+ XTI    = 3               TCV    = -8.8E-4         TRS    = 1.2E-4
+ TLEVC  = 1               CTA    = 9.739001E-4     CTP    = 4.130718E-4
+ TPB    = 1.572025E-3     TPHP   = 1.572025E-3     TREF   = 25
+ FC     = 0               FCS    = 0               )
*
.MODEL NWDIO D (                                    LEVEL  = 3
+ IS     = 6.50E-7         RS     = 1.0E-10         N      = 1.03
+ BV     = 14.75           IBV    = 1E-3            IK     = 1E20
+ IKR    = 1E10            JSW    = 9.75E-13        AREA   = 7.5E-8
+ PJ     = 1.1E-3          CJ     = 1.337566E-4     PB     = 0.5846489
+ MJ     = 0.3883243       CJSW   = 5.333577E-10    PHP    = 0.5846489
+ MJSW   = 0.2345684       TLEV   = 1               EG     = 1.17
+ XTI    = 3               TCV    = -9.6E-4         TRS    = 1.125E-3
+ TLEVC  = 1               CTA    = 2.8425E-3       CTP    = 1.5284E-3
+ TPB    = 2.819E-3        TPHP   = 2.819E-3        TREF   = 25
+ FC     = 0               FCS    = 0               )
*
.ENDL DIO
*
*********************************
*                               *
* 0.18um   3.3V and ESD diode   *
*                               *
*********************************
*
.LIB DIO3
*
.MODEL NDIO_3 D (                                     LEVEL  = 3
+ IS     = 3.93E-7         RS     = 1.0E-10         N      = 1.0
+ BV     = 10.84           IBV    = 1E-3            IK     = 1E20
+ IKR    = 1E10            JSW    = 3.54E-13        AREA   = 7.5E-8
+ PJ     = 1.1E-3          CJ     = 8.964788E-4     PB     = 0.7076023
+ MJ     = 0.3259624       CJSW   = 2.50664E-10     PHP    = 0.7076023
+ MJSW   = 0.1513672       TLEV   = 1               EG     = 1.17
+ XTI    = 3               TCV    = -8.33E-4        TRS    = 1.62E-3
+ TLEVC  = 1               CTA    = 9.923959E-4     CTP    = 5.019466E-4
+ TPB    = 1.687207E-3     TPHP   = 1.687207E-3     TREF   = 25
+ FC     = 0               FCS    = 0               )
*
.MODEL PDIO_3 D (                                     LEVEL  = 3
+ IS     = 1.900E-7        RS     = 1.0E-10         N      = 1.0
+ BV     = 10.3            IBV    = 1E-3            IK     = 1E20
+ IKR    = 1E10            JSW    = 5.02E-13        AREA   = 7.5E-8
+ PJ     = 1.1E-3          CJ     = 1.03531E-3      PB     = 0.8049122
+ MJ     = 0.3954951       CJSW   = 2.23115E-10     PHP    = 0.8049122
+ MJSW   = 0.2573111       TLEV   = 1               EG     = 1.17
+ XTI    = 3               TCV    = -8.1E-4         TRS    = 1.2E-4
+ TLEVC  = 1               CTA    = 9.940197E-4     CTP    = 6.908749E-4
+ TPB    = 1.625007E-3     TPHP   = 1.625007E-3     TREF   = 25
+ FC     = 0               FCS    = 0               )
*
.MODEL NWDIO_3 D (                                    LEVEL  = 3
+ IS     = 6.50E-7         RS     = 1.0E-10         N      = 1.03
+ BV     = 14.75           IBV    = 1E-3            IK     = 1E20
+ IKR    = 1E10            JSW    = 9.75E-13        AREA   = 7.5E-8
+ PJ     = 1.1E-3          CJ     = 1.337566E-4     PB     = 0.5846489
+ MJ     = 0.3883243       CJSW   = 5.333577E-10    PHP    = 0.5846489
+ MJSW   = 0.2345684       TLEV   = 1               EG     = 1.17
+ XTI    = 3               TCV    = -9.6E-4         TRS    = 1.125E-3
+ TLEVC  = 1               CTA    = 2.8425E-3       CTP    = 1.5284E-3
+ TPB    = 2.819E-3        TPHP   = 2.819E-3        TREF   = 25
+ FC     = 0               FCS    = 0               )
*
***************************************************************
*                                                             *
*                                                             *
*                      MODEL OF ESD DIODE                     *
*                                                             *
*                                                             *
*                                                             *
***************************************************************
.MODEL ENDIO_3 D (                                   LEVEL  = 3
+ CJ     = 1.416999E-3     PB     = 0.6798575
+ MJ     = 0.3357974       TREF   = 25
+ FC     = 0               FCS    = 0               )
*
.ENDL DIO3
*
********************************
*                              *
*   0.18um  resistor model     *
*                              *
********************************
*
.LIB TT_RES
.param
+r_rnod	    = 6.82    r_rnodw    = 6.82    r_rpod  = 7.76    r_rpodw  = 7.76    
+r_rnodrpo  = 59      r_rpodrpo  = 133     r_rnwod = 440     r_rnwsti = 927    
+r_rnpo1    = 7.89    r_rnpo1w   = 7.89    r_rppo1 = 7.9     r_rppo1w = 7.9
+r_rnpo1rpo = 292     r_rppo1rpo = 311     
+r_rm1      = 0.078   r_rm2      = 0.078   r_rm3   = 0.078   r_rm4    = 0.078
+r_rm5      = 0.078   r_rm6      = 0.036       
.lib 'log018.l' RES
.ENDL TT_RES
*
.LIB SS_RES
.param
+r_rnod	    = '6.82 +2.5'    r_rnodw    = '6.82 +2.5'   r_rpod  = '7.76 +3'     r_rpodw  = '7.76 +3'   
+r_rnodrpo  = '59   +5.8'    r_rpodrpo  = '133  +19'    r_rnwod = '440  +100'   r_rnwsti = '927  +132'  
+r_rnpo1    = '7.89 +2'      r_rnpo1w   = '7.89 +2'     r_rppo1 = '7.9  +2.5'   r_rppo1w = '7.9  +2.5'
+r_rnpo1rpo = '292  +43.8'   r_rppo1rpo = '311  +46.65' 
+r_rm1      = '0.078+0.023'  r_rm2      = '0.078+0.023' r_rm3   = '0.078+0.023' r_rm4    = '0.078+0.023'
+r_rm5      = '0.078+0.023'  r_rm6      = '0.036+0.009'       
.lib 'log018.l' RES
.ENDL SS_RES
*
.LIB FF_RES
.param
+r_rnod	    = '6.82 -2.5'    r_rnodw    = '6.82 -2.5'   r_rpod  = '7.76 -3'     r_rpodw  = '7.76 -3'   
+r_rnodrpo  = '59   -5.8'    r_rpodrpo  = '133  -19'    r_rnwod = '440  -100'   r_rnwsti = '927  -132'  
+r_rnpo1    = '7.89 -2'      r_rnpo1w   = '7.89 -2'     r_rppo1 = '7.9  -2.5'   r_rppo1w = '7.9  -2.5'
+r_rnpo1rpo = '292  -43.8'   r_rppo1rpo = '311  -46.65' 
+r_rm1      = '0.078-0.023'  r_rm2      = '0.078-0.023' r_rm3   = '0.078-0.023' r_rm4    = '0.078-0.023'
+r_rm5      = '0.078-0.023'  r_rm6      = '0.036-0.009'       
.lib 'log018.l' RES
.ENDL FF_RES
*
.LIB RES
**************************************************************************
.subckt rnod n1 n2 l=length w=width mf=1
.param rsh=r_rnod dw=-0.0765u ptc1=3.35e-3 ptc2=4.31e-7 pvc1=7.56e-5 pvc2=1.24e-3 pt='temper'
.param tfac='1.0+ptc1*(pt-25.0)+ptc2*(pt-25.0)*(pt-25.0)'
r1 n1 n2 'rsh/mf*l/(w-dw)*(1+pvc1*abs(v(n2,n1))+pvc2*v(n2,n1)*v(n2,n1))*tfac'
.ends rnod

.subckt rnodw n1 n2 l=length w=width mf=1
.param rsh=r_rnodw dw=-0.0765u ptc1=3.35e-3 ptc2=4.31e-7 pvc1=7.56e-5 pvc2=1.24e-3 pt='temper'
.param tfac='1.0+ptc1*(pt-25.0)+ptc2*(pt-25.0)*(pt-25.0)'
r1 n1 n2 'rsh/mf*l/(w-dw)*(1+pvc1*abs(v(n2,n1))+pvc2*v(n2,n1)*v(n2,n1))*tfac'
.ends rnodw

.subckt rpod n1 n2 l=length w=width mf=1
.param rsh=r_rpod dw=-0.08u ptc1=3.44e-3 ptc2=5.02e-7 pvc1=-2.51e-4 pvc2=1.03e-3 pt='temper'
.param tfac='1.0+ptc1*(pt-25.0)+ptc2*(pt-25.0)*(pt-25.0)'
r1 n1 n2 'rsh/mf*l/(w-dw)*(1+pvc1*abs(v(n2,n1))+pvc2*v(n2,n1)*v(n2,n1))*tfac'
.ends rpod

.subckt rpodw n1 n2 l=length w=width mf=1
.param rsh=r_rpodw dw=-0.08u ptc1=3.44e-3 ptc2=5.02e-7 pvc1=-2.51e-4 pvc2=1.03e-3 pt='temper'
.param tfac='1.0+ptc1*(pt-25.0)+ptc2*(pt-25.0)*(pt-25.0)'
r1 n1 n2 'rsh/mf*l/(w-dw)*(1+pvc1*abs(v(n2,n1))+pvc2*v(n2,n1)*v(n2,n1))*tfac'
.ends rpodw

.subckt rnodrpo n1 n2 l=length w=width mf=1
.param rsh=r_rnodrpo dw=0.0u ptc1=1.47e-3 ptc2=8.32e-7 pvc1=7.55e-4 pvc2=1.97e-4 pt='temper'
.param tfac='1.0+ptc1*(pt-25.0)+ptc2*(pt-25.0)*(pt-25.0)'
r1 n1 n2 'rsh/mf*l/(w-dw)*(1+pvc1*abs(v(n2,n1))+pvc2*v(n2,n1)*v(n2,n1))*tfac'
.ends rnodrpo

.subckt rpodrpo n1 n2 l=length w=width mf=1
.param rsh=r_rpodrpo dw=0.00u ptc1=1.43e-3 ptc2=7.82e-7 pvc1=-1.19e-3 pvc2=-1.80e-4 pt='temper'
.param tfac='1.0+ptc1*(pt-25.0)+ptc2*(pt-25.0)*(pt-25.0)'
r1 n1 n2 'rsh/mf*l/(w-dw)*(1+pvc1*abs(v(n2,n1))+pvc2*v(n2,n1)*v(n2,n1))*tfac'
.ends rpodrpo

.subckt rnwod n1 n2 l=length w=width mf=1
.param rsh=r_rnwod dw=0.141u ptc1=3.68e-3 ptc2=9.54e-6 pvc1=2.77e-3 pvc2=2.49e-4 pt='temper'
.param tfac='1.0+ptc1*(pt-25.0)+ptc2*(pt-25.0)*(pt-25.0)'
r1 n1 n2 'rsh/mf*l/(w-dw)*(1+pvc1*abs(v(n2,n1))+pvc2*v(n2,n1)*v(n2,n1))*tfac'
.ends rnwod

.subckt rnwsti n1 n2 l=length w=width mf=1
.param rsh=r_rnwsti dw=0.182u ptc1=2.97e-3 ptc2=1.10e-5 pvc1=8.06e-3 pvc2=-3.32e-4 pt='temper'
.param tfac='1.0+ptc1*(pt-25.0)+ptc2*(pt-25.0)*(pt-25.0)'
r1 n1 n2 'rsh/mf*l/(w-dw)*(1+pvc1*abs(v(n2,n1))+pvc2*v(n2,n1)*v(n2,n1))*tfac'
.ends rnwsti

.subckt rnpo1 n1 n2 l=length w=width mf=1
.param rsh=r_rnpo1 dw=-0.057u ptc1=2.92e-3 ptc2=2.66e-7 pvc1=1.35e-3 pvc2=7.15e-3 pt='temper'
.param tfac='1.0+ptc1*(pt-25.0)+ptc2*(pt-25.0)*(pt-25.0)'
r1 n1 n2 'rsh/mf*l/(w-dw)*(1+pvc1*abs(v(n2,n1))+pvc2*v(n2,n1)*v(n2,n1))*tfac'
.ends rnpo1

.subckt rnpo1w n1 n2 l=length w=width mf=1
.param rsh=r_rnpo1w dw=-0.057u ptc1=2.92e-3 ptc2=2.66e-7 pvc1=1.35e-3 pvc2=7.15e-3 pt='temper'
.param tfac='1.0+ptc1*(pt-25.0)+ptc2*(pt-25.0)*(pt-25.0)'
r1 n1 n2 'rsh/mf*l/(w-dw)*(1+pvc1*abs(v(n2,n1))+pvc2*v(n2,n1)*v(n2,n1))*tfac'
.ends rnpo1w

.subckt rppo1 n1 n2 l=length w=width mf=1
.param rsh=r_rppo1 dw=-0.025u ptc1=2.88e-3 ptc2=5.01e-7 pvc1=-7.89e-4 pvc2=6.19e-3 pt='temper'
.param tfac='1.0+ptc1*(pt-25.0)+ptc2*(pt-25.0)*(pt-25.0)'
r1 n1 n2 'rsh/mf*l/(w-dw)*(1+pvc1*abs(v(n2,n1))+pvc2*v(n2,n1)*v(n2,n1))*tfac'
.ends rppo1

.subckt rppo1w n1 n2 l=length w=width mf=1
.param rsh=r_rppo1w dw=-0.025u ptc1=2.88e-3 ptc2=5.01e-7 pvc1=-7.89e-4 pvc2=6.19e-3 pt='temper'
.param tfac='1.0+ptc1*(pt-25.0)+ptc2*(pt-25.0)*(pt-25.0)'
r1 n1 n2 'rsh/mf*l/(w-dw)*(1+pvc1*abs(v(n2,n1))+pvc2*v(n2,n1)*v(n2,n1))*tfac'
.ends rppo1w

.subckt rnpo1rpo n1 n2 l=length w=width mf=1
.param Rend0=3.2586e-5 Rsh=r_rnpo1rpo dl=-0.04225e-6 dw=0.091373e-6
.param pt='temper'
.param pvce1=2.7643e3 pvce2=0.0014 pvce3=0.3712 ptce1=-1.372e-3 ptce2=-1.680e-5
.param pvcp1=-0.0187 pvcp2=1.6513e-5 pvcp3=-2.0496 ptcp1=-1.184e-3 ptcp2=1.3835e-6
.param tface='1.0+ptce1*(pt-25.0)+ptce2*(pt-25.0)*(pt-25.0)'
.param tfacp='1.0+ptcp1*(pt-25.0)+ptcp2*(pt-25.0)*(pt-25.0)'
Rend1 n1 3 'Rend0/mf/(w-dw)*tface*(1+pvce1*(tanh(pvce2*abs(v(n1,3))+pvce3)-tanh(pvce3)))'
Rpure 3 4 'Rsh/mf*(l-dl)/(w-dw)*tfacp*(1+pvcp1*(tanh(pvcp2*abs(v(3,4)/(l-dl))+pvcp3)-tanh(pvcp3)))'
Rend2 4 n2 'Rend0/mf/(w-dw)*tface*(1+pvce1*(tanh(pvce2*abs(v(4,n2))+pvce3)-tanh(pvce3)))'
.ends rnpo1rpo

.subckt rppo1rpo n1 n2 l=length w=width mf=1
.param Rend0=7.2135e-5 Rsh=r_rppo1rpo dl=0.0006e-6 dw=0.06165e-6
.param pt='temper'
.param pvce1=-0.0145 pvce2=62.8187 pvce3=-2.2165 ptce1=-1.692e-3 ptce2=-9.616e-6
.param pvcp1=-0.0011 pvcp2=3.2532e-5 pvcp3=-4.3249 ptcp1=-7.541e-5 ptcp2=3.561e-7
.param tface='1.0+ptce1*(pt-25.0)+ptce2*(pt-25.0)*(pt-25.0)'
.param tfacp='1.0+ptcp1*(pt-25.0)+ptcp2*(pt-25.0)*(pt-25.0)'
Rend1 n1 3 'Rend0/mf/(w-dw)*tface*(1+pvce1*(tanh(pvce2*abs(v(n1,3))+pvce3)-tanh(pvce3)))'
Rpure 3 4 'Rsh/mf*(l-dl)/(w-dw)*tfacp*(1+pvcp1*(tanh(pvcp2*abs(v(3,4)/(l-dl))+pvcp3)-tanh(pvcp3)))'
Rend2 4 n2 'Rend0/mf/(w-dw)*tface*(1+pvce1*(tanh(pvce2*abs(v(4,n2))+pvce3)-tanh(pvce3)))'
.ends rppo1rpo

.subckt rm1 n1 n2 l=length w=width mf=1
.param rsh=r_rm1 dw=0.03u ptc1=3.43e-3 ptc2=-1.08e-6 pvc1=0 pvc2=0 pt='temper'
.param tfac='1.0+ptc1*(pt-25.0)+ptc2*(pt-25.0)*(pt-25.0)'
r1 n1 n2 'rsh/mf*l/(w-dw)*(1+pvc1*abs(v(n2,n1))+pvc2*v(n2,n1)*v(n2,n1))*tfac'
.ends rm1

.subckt rm2 n1 n2 l=length w=width mf=1
.param rsh=r_rm2 dw=0.03u ptc1=3.43e-3 ptc2=-1.08e-6 pvc1=0 pvc2=0 pt='temper'
.param tfac='1.0+ptc1*(pt-25.0)+ptc2*(pt-25.0)*(pt-25.0)'
r1 n1 n2 'rsh/mf*l/(w-dw)*(1+pvc1*abs(v(n2,n1))+pvc2*v(n2,n1)*v(n2,n1))*tfac'
.ends rm2

.subckt rm3 n1 n2 l=length w=width mf=1
.param rsh=r_rm3 dw=0.03u ptc1=3.43e-3 ptc2=-1.08e-6 pvc1=0 pvc2=0 pt='temper'
.param tfac='1.0+ptc1*(pt-25.0)+ptc2*(pt-25.0)*(pt-25.0)'
r1 n1 n2 'rsh/mf*l/(w-dw)*(1+pvc1*abs(v(n2,n1))+pvc2*v(n2,n1)*v(n2,n1))*tfac'
.ends rm3

.subckt rm4 n1 n2 l=length w=width mf=1
.param rsh=r_rm4 dw=0.03u ptc1=3.43e-3 ptc2=-1.08e-6 pvc1=0 pvc2=0 pt='temper'
.param tfac='1.0+ptc1*(pt-25.0)+ptc2*(pt-25.0)*(pt-25.0)'
r1 n1 n2 'rsh/mf*l/(w-dw)*(1+pvc1*abs(v(n2,n1))+pvc2*v(n2,n1)*v(n2,n1))*tfac'
.ends rm4

.subckt rm5 n1 n2 l=length w=width mf=1
.param rsh=r_rm5 dw=0.03u ptc1=3.43e-3 ptc2=-1.08e-6 pvc1=0 pvc2=0 pt='temper'
.param tfac='1.0+ptc1*(pt-25.0)+ptc2*(pt-25.0)*(pt-25.0)'
r1 n1 n2 'rsh/mf*l/(w-dw)*(1+pvc1*abs(v(n2,n1))+pvc2*v(n2,n1)*v(n2,n1))*tfac'
.ends rm5

.subckt rm6 n1 n2 l=length w=width mf=1
.param rsh=r_rm6 dw=0.04u ptc1=3.60e-3 ptc2=-1.16e-7 pvc1=0 pvc2=0 pt='temper'
.param tfac='1.0+ptc1*(pt-25.0)+ptc2*(pt-25.0)*(pt-25.0)'
r1 n1 n2 'rsh/mf*l/(w-dw)*(1+pvc1*abs(v(n2,n1))+pvc2*v(n2,n1)*v(n2,n1))*tfac'
.ends rm6

.ENDL RES
